 'MT3D3.00.99'           0           0           0           0           0
           0          82           1           1
           1           1          81          41           1
 'THKSAT          '
  -111.0000      -111.0000      -111.0000      -111.0000      -111.0000    
  -111.0000      -111.0000      -111.0000      -111.0000      -111.0000    
  -111.0000      -111.0000      -111.0000      -111.0000      -111.0000    
  -111.0000      -111.0000      -111.0000      -111.0000      -111.0000    
  -111.0000      -111.0000      -111.0000      -111.0000      -111.0000    
  -111.0000      -111.0000      -111.0000      -111.0000      -111.0000    
  -111.0000      -111.0000      -111.0000      -111.0000      -111.0000    
  -111.0000      -111.0000      -111.0000      -111.0000      -111.0000    
  -111.0000      -111.0000      -111.0000      -111.0000      -111.0000    
  -111.0000      -111.0000      -111.0000      -111.0000      -111.0000    
  -111.0000      -111.0000      -111.0000      -111.0000      -111.0000    
  -111.0000      -111.0000      -111.0000      -111.0000      -111.0000    
  -111.0000      -111.0000      -111.0000      -111.0000      -111.0000    
  -111.0000      -111.0000      -111.0000      -111.0000      -111.0000    
  -111.0000      -111.0000      -111.0000      -111.0000      -111.0000    
  -111.0000      -111.0000      -111.0000      -111.0000      -111.0000    
  -111.0000      -111.0000      -111.0000      -111.0000      -111.0000    
  -111.0000      -111.0000      -111.0000      -111.0000      -111.0000    
  -111.0000      -111.0000      -111.0000      -111.0000      -111.0000    
  -111.0000      -111.0000      -111.0000      -111.0000      -111.0000    
  -111.0000      -111.0000      -111.0000      -111.0000      -111.0000    
  -111.0000      -111.0000      -111.0000      -111.0000      -111.0000    
  -111.0000      -111.0000      -111.0000      -111.0000      -111.0000    
  -111.0000      -111.0000      -111.0000      -111.0000      -111.0000    
  -111.0000      -111.0000      -111.0000      -111.0000      -111.0000    
  -111.0000      -111.0000      -111.0000      -111.0000      -111.0000    
  -111.0000      -111.0000      -111.0000      -111.0000      -111.0000    
  -111.0000      -111.0000      -111.0000      -111.0000      -111.0000    
  -111.0000      -111.0000      -111.0000      -111.0000      -111.0000    
  -111.0000      -111.0000      -111.0000      -111.0000      -111.0000    
  -111.0000      -111.0000      -111.0000      -111.0000      -111.0000    
  -111.0000      -111.0000      -111.0000      -111.0000      -111.0000    
  -111.0000      -111.0000      -111.0000      -111.0000      -111.0000    
  -111.0000      -111.0000      -111.0000      -111.0000      -111.0000    
  -111.0000      -111.0000      -111.0000      -111.0000      -111.0000    
  -111.0000      -111.0000      -111.0000      -111.0000      -111.0000    
  -111.0000      -111.0000      -111.0000      -111.0000      -111.0000    
  -111.0000      -111.0000      -111.0000      -111.0000      -111.0000    
  -111.0000      -111.0000      -111.0000      -111.0000      -111.0000    
  -111.0000      -111.0000      -111.0000      -111.0000      -111.0000    
  -111.0000      -111.0000      -111.0000      -111.0000      -111.0000    
  -111.0000      -111.0000      -111.0000      -111.0000      -111.0000    
  -111.0000      -111.0000      -111.0000      -111.0000      -111.0000    
  -111.0000      -111.0000      -111.0000      -111.0000      -111.0000    
  -111.0000      -111.0000      -111.0000      -111.0000      -111.0000    
  -111.0000      -111.0000      -111.0000      -111.0000      -111.0000    
  -111.0000      -111.0000      -111.0000      -111.0000      -111.0000    
  -111.0000      -111.0000      -111.0000      -111.0000      -111.0000    
  -111.0000      -111.0000      -111.0000      -111.0000      -111.0000    
  -111.0000      -111.0000      -111.0000      -111.0000      -111.0000    
  -111.0000      -111.0000      -111.0000      -111.0000      -111.0000    
  -111.0000      -111.0000      -111.0000      -111.0000      -111.0000    
  -111.0000      -111.0000      -111.0000      -111.0000      -111.0000    
  -111.0000      -111.0000      -111.0000      -111.0000      -111.0000    
  -111.0000      -111.0000      -111.0000      -111.0000      -111.0000    
  -111.0000      -111.0000      -111.0000      -111.0000      -111.0000    
  -111.0000      -111.0000      -111.0000      -111.0000      -111.0000    
  -111.0000      -111.0000      -111.0000      -111.0000      -111.0000    
  -111.0000      -111.0000      -111.0000      -111.0000      -111.0000    
  -111.0000      -111.0000      -111.0000      -111.0000      -111.0000    
  -111.0000      -111.0000      -111.0000      -111.0000      -111.0000    
  -111.0000      -111.0000      -111.0000      -111.0000      -111.0000    
  -111.0000      -111.0000      -111.0000      -111.0000      -111.0000    
  -111.0000      -111.0000      -111.0000      -111.0000      -111.0000    
  -111.0000      -111.0000      -111.0000      -111.0000      -111.0000    
  -111.0000      -111.0000      -111.0000      -111.0000      -111.0000    
  -111.0000      -111.0000      -111.0000      -111.0000      -111.0000    
  -111.0000      -111.0000      -111.0000      -111.0000      -111.0000    
  -111.0000      -111.0000      -111.0000      -111.0000      -111.0000    
  -111.0000      -111.0000      -111.0000      -111.0000      -111.0000    
  -111.0000      -111.0000      -111.0000      -111.0000      -111.0000    
  -111.0000      -111.0000      -111.0000      -111.0000      -111.0000    
  -111.0000      -111.0000      -111.0000      -111.0000      -111.0000    
  -111.0000      -111.0000      -111.0000      -111.0000      -111.0000    
  -111.0000      -111.0000      -111.0000      -111.0000      -111.0000    
  -111.0000      -111.0000      -111.0000      -111.0000      -111.0000    
  -111.0000      -111.0000      -111.0000      -111.0000      -111.0000    
  -111.0000      -111.0000      -111.0000      -111.0000      -111.0000    
  -111.0000      -111.0000      -111.0000      -111.0000      -111.0000    
  -111.0000      -111.0000      -111.0000      -111.0000      -111.0000    
  -111.0000      -111.0000      -111.0000      -111.0000      -111.0000    
  -111.0000      -111.0000      -111.0000      -111.0000      -111.0000    
  -111.0000      -111.0000      -111.0000      -111.0000      -111.0000    
  -111.0000      -111.0000      -111.0000      -111.0000      -111.0000    
  -111.0000      -111.0000      -111.0000      -111.0000      -111.0000    
  -111.0000      -111.0000      -111.0000      -111.0000      -111.0000    
  -111.0000      -111.0000      -111.0000      -111.0000      -111.0000    
  -111.0000      -111.0000      -111.0000      -111.0000      -111.0000    
  -111.0000      -111.0000      -111.0000      -111.0000      -111.0000    
  -111.0000      -111.0000      -111.0000      -111.0000      -111.0000    
  -111.0000      -111.0000      -111.0000      -111.0000      -111.0000    
  -111.0000      -111.0000      -111.0000      -111.0000      -111.0000    
  -111.0000      -111.0000      -111.0000      -111.0000      -111.0000    
  -111.0000      -111.0000      -111.0000      -111.0000      -111.0000    
  -111.0000      -111.0000      -111.0000      -111.0000      -111.0000    
  -111.0000      -111.0000      -111.0000      -111.0000      -111.0000    
  -111.0000      -111.0000      -111.0000      -111.0000      -111.0000    
  -111.0000      -111.0000      -111.0000      -111.0000      -111.0000    
  -111.0000      -111.0000      -111.0000      -111.0000      -111.0000    
  -111.0000      -111.0000      -111.0000      -111.0000      -111.0000    
  -111.0000      -111.0000      -111.0000      -111.0000      -111.0000    
  -111.0000      -111.0000      -111.0000      -111.0000      -111.0000    
  -111.0000      -111.0000      -111.0000      -111.0000      -111.0000    
  -111.0000      -111.0000      -111.0000      -111.0000      -111.0000    
  -111.0000      -111.0000      -111.0000      -111.0000      -111.0000    
  -111.0000      -111.0000      -111.0000      -111.0000      -111.0000    
  -111.0000      -111.0000      -111.0000      -111.0000      -111.0000    
  -111.0000      -111.0000      -111.0000      -111.0000      -111.0000    
  -111.0000      -111.0000      -111.0000      -111.0000      -111.0000    
  -111.0000      -111.0000      -111.0000      -111.0000      -111.0000    
  -111.0000      -111.0000      -111.0000      -111.0000      -111.0000    
  -111.0000      -111.0000      -111.0000      -111.0000      -111.0000    
  -111.0000      -111.0000      -111.0000      -111.0000      -111.0000    
  -111.0000      -111.0000      -111.0000      -111.0000      -111.0000    
  -111.0000      -111.0000      -111.0000      -111.0000      -111.0000    
  -111.0000      -111.0000      -111.0000      -111.0000      -111.0000    
  -111.0000      -111.0000      -111.0000      -111.0000      -111.0000    
  -111.0000      -111.0000      -111.0000      -111.0000      -111.0000    
  -111.0000      -111.0000      -111.0000      -111.0000      -111.0000    
  -111.0000      -111.0000      -111.0000      -111.0000      -111.0000    
  -111.0000      -111.0000      -111.0000      -111.0000      -111.0000    
  -111.0000      -111.0000      -111.0000      -111.0000      -111.0000    
  -111.0000      -111.0000      -111.0000      -111.0000      -111.0000    
  -111.0000      -111.0000      -111.0000      -111.0000      -111.0000    
  -111.0000      -111.0000      -111.0000      -111.0000      -111.0000    
  -111.0000      -111.0000      -111.0000      -111.0000      -111.0000    
  -111.0000      -111.0000      -111.0000      -111.0000      -111.0000    
  -111.0000      -111.0000      -111.0000      -111.0000      -111.0000    
  -111.0000      -111.0000      -111.0000      -111.0000      -111.0000    
  -111.0000      -111.0000      -111.0000      -111.0000      -111.0000    
  -111.0000      -111.0000      -111.0000      -111.0000      -111.0000    
  -111.0000      -111.0000      -111.0000      -111.0000      -111.0000    
  -111.0000      -111.0000      -111.0000      -111.0000      -111.0000    
  -111.0000      -111.0000      -111.0000      -111.0000      -111.0000    
  -111.0000      -111.0000      -111.0000      -111.0000      -111.0000    
  -111.0000      -111.0000      -111.0000      -111.0000      -111.0000    
  -111.0000      -111.0000      -111.0000      -111.0000      -111.0000    
  -111.0000      -111.0000      -111.0000      -111.0000      -111.0000    
  -111.0000      -111.0000      -111.0000      -111.0000      -111.0000    
  -111.0000      -111.0000      -111.0000      -111.0000      -111.0000    
  -111.0000      -111.0000      -111.0000      -111.0000      -111.0000    
  -111.0000      -111.0000      -111.0000      -111.0000      -111.0000    
  -111.0000      -111.0000      -111.0000      -111.0000      -111.0000    
  -111.0000      -111.0000      -111.0000      -111.0000      -111.0000    
  -111.0000      -111.0000      -111.0000      -111.0000      -111.0000    
  -111.0000      -111.0000      -111.0000      -111.0000      -111.0000    
  -111.0000      -111.0000      -111.0000      -111.0000      -111.0000    
  -111.0000      -111.0000      -111.0000      -111.0000      -111.0000    
  -111.0000      -111.0000      -111.0000      -111.0000      -111.0000    
  -111.0000      -111.0000      -111.0000      -111.0000      -111.0000    
  -111.0000      -111.0000      -111.0000      -111.0000      -111.0000    
  -111.0000      -111.0000      -111.0000      -111.0000      -111.0000    
  -111.0000      -111.0000      -111.0000      -111.0000      -111.0000    
  -111.0000      -111.0000      -111.0000      -111.0000      -111.0000    
  -111.0000      -111.0000      -111.0000      -111.0000      -111.0000    
  -111.0000      -111.0000      -111.0000      -111.0000      -111.0000    
  -111.0000      -111.0000      -111.0000      -111.0000      -111.0000    
  -111.0000      -111.0000      -111.0000      -111.0000      -111.0000    
  -111.0000      -111.0000      -111.0000      -111.0000      -111.0000    
  -111.0000      -111.0000      -111.0000      -111.0000      -111.0000    
  -111.0000      -111.0000      -111.0000      -111.0000      -111.0000    
  -111.0000      -111.0000      -111.0000      -111.0000      -111.0000    
  -111.0000      -111.0000      -111.0000      -111.0000      -111.0000    
  -111.0000      -111.0000      -111.0000      -111.0000      -111.0000    
  -111.0000      -111.0000      -111.0000      -111.0000      -111.0000    
  -111.0000      -111.0000      -111.0000      -111.0000      -111.0000    
  -111.0000      -111.0000      -111.0000      -111.0000      -111.0000    
  -111.0000      -111.0000      -111.0000      -111.0000      -111.0000    
  -111.0000      -111.0000      -111.0000      -111.0000      -111.0000    
  -111.0000      -111.0000      -111.0000      -111.0000      -111.0000    
  -111.0000      -111.0000      -111.0000      -111.0000      -111.0000    
  -111.0000      -111.0000      -111.0000      -111.0000      -111.0000    
  -111.0000      -111.0000      -111.0000      -111.0000      -111.0000    
  -111.0000      -111.0000      -111.0000      -111.0000      -111.0000    
  -111.0000      -111.0000      -111.0000      -111.0000      -111.0000    
  -111.0000      -111.0000      -111.0000      -111.0000      -111.0000    
  -111.0000      -111.0000      -111.0000      -111.0000      -111.0000    
  -111.0000      -111.0000      -111.0000      -111.0000      -111.0000    
  -111.0000      -111.0000      -111.0000      -111.0000      -111.0000    
  -111.0000      -111.0000      -111.0000      -111.0000      -111.0000    
  -111.0000      -111.0000      -111.0000      -111.0000      -111.0000    
  -111.0000      -111.0000      -111.0000      -111.0000      -111.0000    
  -111.0000      -111.0000      -111.0000      -111.0000      -111.0000    
  -111.0000      -111.0000      -111.0000      -111.0000      -111.0000    
  -111.0000      -111.0000      -111.0000      -111.0000      -111.0000    
  -111.0000      -111.0000      -111.0000      -111.0000      -111.0000    
  -111.0000      -111.0000      -111.0000      -111.0000      -111.0000    
  -111.0000      -111.0000      -111.0000      -111.0000      -111.0000    
  -111.0000      -111.0000      -111.0000      -111.0000      -111.0000    
  -111.0000      -111.0000      -111.0000      -111.0000      -111.0000    
  -111.0000      -111.0000      -111.0000      -111.0000      -111.0000    
  -111.0000      -111.0000      -111.0000      -111.0000      -111.0000    
  -111.0000      -111.0000      -111.0000      -111.0000      -111.0000    
  -111.0000      -111.0000      -111.0000      -111.0000      -111.0000    
  -111.0000      -111.0000      -111.0000      -111.0000      -111.0000    
  -111.0000      -111.0000      -111.0000      -111.0000      -111.0000    
  -111.0000      -111.0000      -111.0000      -111.0000      -111.0000    
  -111.0000      -111.0000      -111.0000      -111.0000      -111.0000    
  -111.0000      -111.0000      -111.0000      -111.0000      -111.0000    
  -111.0000      -111.0000      -111.0000      -111.0000      -111.0000    
  -111.0000      -111.0000      -111.0000      -111.0000      -111.0000    
  -111.0000      -111.0000      -111.0000      -111.0000      -111.0000    
  -111.0000      -111.0000      -111.0000      -111.0000      -111.0000    
  -111.0000      -111.0000      -111.0000      -111.0000      -111.0000    
  -111.0000      -111.0000      -111.0000      -111.0000      -111.0000    
  -111.0000      -111.0000      -111.0000      -111.0000      -111.0000    
  -111.0000      -111.0000      -111.0000      -111.0000      -111.0000    
  -111.0000      -111.0000      -111.0000      -111.0000      -111.0000    
  -111.0000      -111.0000      -111.0000      -111.0000      -111.0000    
  -111.0000      -111.0000      -111.0000      -111.0000      -111.0000    
  -111.0000      -111.0000      -111.0000      -111.0000      -111.0000    
  -111.0000      -111.0000      -111.0000      -111.0000      -111.0000    
  -111.0000      -111.0000      -111.0000      -111.0000      -111.0000    
  -111.0000      -111.0000      -111.0000      -111.0000      -111.0000    
  -111.0000      -111.0000      -111.0000      -111.0000      -111.0000    
  -111.0000      -111.0000      -111.0000      -111.0000      -111.0000    
  -111.0000      -111.0000      -111.0000      -111.0000      -111.0000    
  -111.0000      -111.0000      -111.0000      -111.0000      -111.0000    
  -111.0000      -111.0000      -111.0000      -111.0000      -111.0000    
  -111.0000      -111.0000      -111.0000      -111.0000      -111.0000    
  -111.0000      -111.0000      -111.0000      -111.0000      -111.0000    
  -111.0000      -111.0000      -111.0000      -111.0000      -111.0000    
  -111.0000      -111.0000      -111.0000      -111.0000      -111.0000    
  -111.0000      -111.0000      -111.0000      -111.0000      -111.0000    
  -111.0000      -111.0000      -111.0000      -111.0000      -111.0000    
  -111.0000      -111.0000      -111.0000      -111.0000      -111.0000    
  -111.0000      -111.0000      -111.0000      -111.0000      -111.0000    
  -111.0000      -111.0000      -111.0000      -111.0000      -111.0000    
  -111.0000      -111.0000      -111.0000      -111.0000      -111.0000    
  -111.0000      -111.0000      -111.0000      -111.0000      -111.0000    
  -111.0000      -111.0000      -111.0000      -111.0000      -111.0000    
  -111.0000      -111.0000      -111.0000      -111.0000      -111.0000    
  -111.0000      -111.0000      -111.0000      -111.0000      -111.0000    
  -111.0000      -111.0000      -111.0000      -111.0000      -111.0000    
  -111.0000      -111.0000      -111.0000      -111.0000      -111.0000    
  -111.0000      -111.0000      -111.0000      -111.0000      -111.0000    
  -111.0000      -111.0000      -111.0000      -111.0000      -111.0000    
  -111.0000      -111.0000      -111.0000      -111.0000      -111.0000    
  -111.0000      -111.0000      -111.0000      -111.0000      -111.0000    
  -111.0000      -111.0000      -111.0000      -111.0000      -111.0000    
  -111.0000      -111.0000      -111.0000      -111.0000      -111.0000    
  -111.0000      -111.0000      -111.0000      -111.0000      -111.0000    
  -111.0000      -111.0000      -111.0000      -111.0000      -111.0000    
  -111.0000      -111.0000      -111.0000      -111.0000      -111.0000    
  -111.0000      -111.0000      -111.0000      -111.0000      -111.0000    
  -111.0000      -111.0000      -111.0000      -111.0000      -111.0000    
  -111.0000      -111.0000      -111.0000      -111.0000      -111.0000    
  -111.0000      -111.0000      -111.0000      -111.0000      -111.0000    
  -111.0000      -111.0000      -111.0000      -111.0000      -111.0000    
  -111.0000      -111.0000      -111.0000      -111.0000      -111.0000    
  -111.0000      -111.0000      -111.0000      -111.0000      -111.0000    
  -111.0000      -111.0000      -111.0000      -111.0000      -111.0000    
  -111.0000      -111.0000      -111.0000      -111.0000      -111.0000    
  -111.0000      -111.0000      -111.0000      -111.0000      -111.0000    
  -111.0000      -111.0000      -111.0000      -111.0000      -111.0000    
  -111.0000      -111.0000      -111.0000      -111.0000      -111.0000    
  -111.0000      -111.0000      -111.0000      -111.0000      -111.0000    
  -111.0000      -111.0000      -111.0000      -111.0000      -111.0000    
  -111.0000      -111.0000      -111.0000      -111.0000      -111.0000    
  -111.0000      -111.0000      -111.0000      -111.0000      -111.0000    
  -111.0000      -111.0000      -111.0000      -111.0000      -111.0000    
  -111.0000      -111.0000      -111.0000      -111.0000      -111.0000    
  -111.0000      -111.0000      -111.0000      -111.0000      -111.0000    
  -111.0000      -111.0000      -111.0000      -111.0000      -111.0000    
  -111.0000      -111.0000      -111.0000      -111.0000      -111.0000    
  -111.0000      -111.0000      -111.0000      -111.0000      -111.0000    
  -111.0000      -111.0000      -111.0000      -111.0000      -111.0000    
  -111.0000      -111.0000      -111.0000      -111.0000      -111.0000    
  -111.0000      -111.0000      -111.0000      -111.0000      -111.0000    
  -111.0000      -111.0000      -111.0000      -111.0000      -111.0000    
  -111.0000      -111.0000      -111.0000      -111.0000      -111.0000    
  -111.0000      -111.0000      -111.0000      -111.0000      -111.0000    
  -111.0000      -111.0000      -111.0000      -111.0000      -111.0000    
  -111.0000      -111.0000      -111.0000      -111.0000      -111.0000    
  -111.0000      -111.0000      -111.0000      -111.0000      -111.0000    
  -111.0000      -111.0000      -111.0000      -111.0000      -111.0000    
  -111.0000      -111.0000      -111.0000      -111.0000      -111.0000    
  -111.0000      -111.0000      -111.0000      -111.0000      -111.0000    
  -111.0000      -111.0000      -111.0000      -111.0000      -111.0000    
  -111.0000      -111.0000      -111.0000      -111.0000      -111.0000    
  -111.0000      -111.0000      -111.0000      -111.0000      -111.0000    
  -111.0000      -111.0000      -111.0000      -111.0000      -111.0000    
  -111.0000      -111.0000      -111.0000      -111.0000      -111.0000    
  -111.0000      -111.0000      -111.0000      -111.0000      -111.0000    
  -111.0000      -111.0000      -111.0000      -111.0000      -111.0000    
  -111.0000      -111.0000      -111.0000      -111.0000      -111.0000    
  -111.0000      -111.0000      -111.0000      -111.0000      -111.0000    
  -111.0000      -111.0000      -111.0000      -111.0000      -111.0000    
  -111.0000      -111.0000      -111.0000      -111.0000      -111.0000    
  -111.0000      -111.0000      -111.0000      -111.0000      -111.0000    
  -111.0000      -111.0000      -111.0000      -111.0000      -111.0000    
  -111.0000      -111.0000      -111.0000      -111.0000      -111.0000    
  -111.0000      -111.0000      -111.0000      -111.0000      -111.0000    
  -111.0000      -111.0000      -111.0000      -111.0000      -111.0000    
  -111.0000      -111.0000      -111.0000      -111.0000      -111.0000    
  -111.0000      -111.0000      -111.0000      -111.0000      -111.0000    
  -111.0000      -111.0000      -111.0000      -111.0000      -111.0000    
  -111.0000      -111.0000      -111.0000      -111.0000      -111.0000    
  -111.0000      -111.0000      -111.0000      -111.0000      -111.0000    
  -111.0000      -111.0000      -111.0000      -111.0000      -111.0000    
  -111.0000      -111.0000      -111.0000      -111.0000      -111.0000    
  -111.0000      -111.0000      -111.0000      -111.0000      -111.0000    
  -111.0000      -111.0000      -111.0000      -111.0000      -111.0000    
  -111.0000      -111.0000      -111.0000      -111.0000      -111.0000    
  -111.0000      -111.0000      -111.0000      -111.0000      -111.0000    
  -111.0000      -111.0000      -111.0000      -111.0000      -111.0000    
  -111.0000      -111.0000      -111.0000      -111.0000      -111.0000    
  -111.0000      -111.0000      -111.0000      -111.0000      -111.0000    
  -111.0000      -111.0000      -111.0000      -111.0000      -111.0000    
  -111.0000      -111.0000      -111.0000      -111.0000      -111.0000    
  -111.0000      -111.0000      -111.0000      -111.0000      -111.0000    
  -111.0000      -111.0000      -111.0000      -111.0000      -111.0000    
  -111.0000      -111.0000      -111.0000      -111.0000      -111.0000    
  -111.0000      -111.0000      -111.0000      -111.0000      -111.0000    
  -111.0000      -111.0000      -111.0000      -111.0000      -111.0000    
  -111.0000      -111.0000      -111.0000      -111.0000      -111.0000    
  -111.0000      -111.0000      -111.0000      -111.0000      -111.0000    
  -111.0000      -111.0000      -111.0000      -111.0000      -111.0000    
  -111.0000      -111.0000      -111.0000      -111.0000      -111.0000    
  -111.0000      -111.0000      -111.0000      -111.0000      -111.0000    
  -111.0000      -111.0000      -111.0000      -111.0000      -111.0000    
  -111.0000      -111.0000      -111.0000      -111.0000      -111.0000    
  -111.0000      -111.0000      -111.0000      -111.0000      -111.0000    
  -111.0000      -111.0000      -111.0000      -111.0000      -111.0000    
  -111.0000      -111.0000      -111.0000      -111.0000      -111.0000    
  -111.0000      -111.0000      -111.0000      -111.0000      -111.0000    
  -111.0000      -111.0000      -111.0000      -111.0000      -111.0000    
  -111.0000      -111.0000      -111.0000      -111.0000      -111.0000    
  -111.0000      -111.0000      -111.0000      -111.0000      -111.0000    
  -111.0000      -111.0000      -111.0000      -111.0000      -111.0000    
  -111.0000      -111.0000      -111.0000      -111.0000      -111.0000    
  -111.0000      -111.0000      -111.0000      -111.0000      -111.0000    
  -111.0000      -111.0000      -111.0000      -111.0000      -111.0000    
  -111.0000      -111.0000      -111.0000      -111.0000      -111.0000    
  -111.0000      -111.0000      -111.0000      -111.0000      -111.0000    
  -111.0000      -111.0000      -111.0000      -111.0000      -111.0000    
  -111.0000      -111.0000      -111.0000      -111.0000      -111.0000    
  -111.0000      -111.0000      -111.0000      -111.0000      -111.0000    
  -111.0000      -111.0000      -111.0000      -111.0000      -111.0000    
  -111.0000      -111.0000      -111.0000      -111.0000      -111.0000    
  -111.0000      -111.0000      -111.0000      -111.0000      -111.0000    
  -111.0000      -111.0000      -111.0000      -111.0000      -111.0000    
  -111.0000      -111.0000      -111.0000      -111.0000      -111.0000    
  -111.0000      -111.0000      -111.0000      -111.0000      -111.0000    
  -111.0000      -111.0000      -111.0000      -111.0000      -111.0000    
  -111.0000      -111.0000      -111.0000      -111.0000      -111.0000    
  -111.0000      -111.0000      -111.0000      -111.0000      -111.0000    
  -111.0000      -111.0000      -111.0000      -111.0000      -111.0000    
  -111.0000      -111.0000      -111.0000      -111.0000      -111.0000    
  -111.0000      -111.0000      -111.0000      -111.0000      -111.0000    
  -111.0000      -111.0000      -111.0000      -111.0000      -111.0000    
  -111.0000      -111.0000      -111.0000      -111.0000      -111.0000    
  -111.0000      -111.0000      -111.0000      -111.0000      -111.0000    
  -111.0000      -111.0000      -111.0000      -111.0000      -111.0000    
  -111.0000      -111.0000      -111.0000      -111.0000      -111.0000    
  -111.0000      -111.0000      -111.0000      -111.0000      -111.0000    
  -111.0000      -111.0000      -111.0000      -111.0000      -111.0000    
  -111.0000      -111.0000      -111.0000      -111.0000      -111.0000    
  -111.0000      -111.0000      -111.0000      -111.0000      -111.0000    
  -111.0000      -111.0000      -111.0000      -111.0000      -111.0000    
  -111.0000      -111.0000      -111.0000      -111.0000      -111.0000    
  -111.0000      -111.0000      -111.0000      -111.0000      -111.0000    
  -111.0000      -111.0000      -111.0000      -111.0000      -111.0000    
  -111.0000      -111.0000      -111.0000      -111.0000      -111.0000    
  -111.0000      -111.0000      -111.0000      -111.0000      -111.0000    
  -111.0000      -111.0000      -111.0000      -111.0000      -111.0000    
  -111.0000      -111.0000      -111.0000      -111.0000      -111.0000    
  -111.0000      -111.0000      -111.0000      -111.0000      -111.0000    
  -111.0000      -111.0000      -111.0000      -111.0000      -111.0000    
  -111.0000      -111.0000      -111.0000      -111.0000      -111.0000    
  -111.0000      -111.0000      -111.0000      -111.0000      -111.0000    
  -111.0000      -111.0000      -111.0000      -111.0000      -111.0000    
  -111.0000      -111.0000      -111.0000      -111.0000      -111.0000    
  -111.0000      -111.0000      -111.0000      -111.0000      -111.0000    
  -111.0000      -111.0000      -111.0000      -111.0000      -111.0000    
  -111.0000      -111.0000      -111.0000      -111.0000      -111.0000    
  -111.0000      -111.0000      -111.0000      -111.0000      -111.0000    
  -111.0000      -111.0000      -111.0000      -111.0000      -111.0000    
  -111.0000      -111.0000      -111.0000      -111.0000      -111.0000    
  -111.0000      -111.0000      -111.0000      -111.0000      -111.0000    
  -111.0000      -111.0000      -111.0000      -111.0000      -111.0000    
  -111.0000      -111.0000      -111.0000      -111.0000      -111.0000    
  -111.0000      -111.0000      -111.0000      -111.0000      -111.0000    
  -111.0000      -111.0000      -111.0000      -111.0000      -111.0000    
  -111.0000      -111.0000      -111.0000      -111.0000      -111.0000    
  -111.0000      -111.0000      -111.0000      -111.0000      -111.0000    