3D TRANSPORT IN UNIFORM FLOW FIELD WITH CONTINUOUS POINT SOURCE                 
(REFER TO SECTION 7.7 OF MT3DMS MANUAL)                                         
         1       41        81         16         1         1  !NLAY,NROW,NCOL,NP
 DAY  FT  LB                                                  !TUNIT,LUNIT,MUNIT
 T T T F T F F F F F                            !TRNOP: ADV,DSP,SSM,RCT,GCG...  
 0                                                                              
       100         0(81f10.6)                 3   ! DELR                        
  0.255436  0.255436  0.255436  0.255436  0.255436  0.255436  0.255436  0.255436  0.255436  0.255436  0.255436  0.255436  0.255436  0.255436  0.255436  0.248797  0.248797  0.248797  0.248797  0.248797  0.248797  0.248797  0.248797  0.248797  0.248797  0.248797  0.248797  0.248797  0.248797  0.248797  0.248797  0.248797  0.248797  0.248797  0.248797  0.248797  0.248797  0.248797  0.248797  0.248797  0.248797  0.248797  0.248797  0.248797  0.248797  0.248797  0.248797  0.248797  0.248797  0.248797  0.248797  0.248797  0.248797  0.248797  0.248797  0.248797  0.248797  0.248797  0.248797  0.248797  0.248797  0.248797  0.248797  0.248797  0.248797  0.248797  0.248797  0.248797  0.248797  0.248797  0.248797  0.248797  0.248797  0.248797  0.248797  0.248797  0.248797  0.248797  0.248797  0.248797  0.248797
       100         0(41f10.6)                 3   ! DELC                        
  0.264631  0.264631  0.264631  0.264631  0.264631  0.264631  0.264631  0.264631  0.264631  0.264631  0.264631  0.264631  0.264631  0.264631  0.264631  0.264631  0.264631  0.264631  0.238620  0.238620  0.238620  0.238620  0.238620  0.238620  0.238620  0.238620  0.238620  0.238620  0.238620  0.238620  0.238620  0.238620  0.238620  0.238620  0.238620  0.238620  0.238620  0.238620  0.238620  0.238620  0.238620
         0       1.                                           !HTOP             
         0       1.                                          !DZ-LAYER 1        
        50         1(81F10.4)                   5            !PRSITY-LAYER 1    
         0         1                                          !ICBUND-LAYER 1   
        30         1(81F10.4)                   5            !SCONC-LAYER 1     
   -111.11         0                                          !CINACT,THKMIN    
         1         2         0         0         T         T  !OUTPUT CONTROL   
         9
         4         5         6         7         8         9        10        11        12
         1         1                                          !NOBS,NPROBS      
         1         1         61           ow1                                   
         T         1                                          !CHKMAS,NPRMAS    
  1.000000         1        2.
        0.     10000        2.       3.5                      !DT0,MXSTRN,TTSMUL
  1.000000         1        2.
        0.     10000        2.       3.5                      !DT0,MXSTRN,TTSMUL
  1.000000         1        2.
        0.     10000        2.       3.5                      !DT0,MXSTRN,TTSMUL
  1.000000         1        2.
        0.     10000        2.       3.5                      !DT0,MXSTRN,TTSMUL
  1.000000         1        2.
        0.     10000        2.       3.5                      !DT0,MXSTRN,TTSMUL
  1.000000         1        2.
        0.     10000        2.       3.5                      !DT0,MXSTRN,TTSMUL
  1.000000         1        2.
        0.     10000        2.       3.5                      !DT0,MXSTRN,TTSMUL
  1.000000         1        2.
        0.     10000        2.       3.5                      !DT0,MXSTRN,TTSMUL
  1.000000         1        2.
        0.     10000        2.       3.5                      !DT0,MXSTRN,TTSMUL
  1.000000         1        2.
        0.     10000        2.       3.5                      !DT0,MXSTRN,TTSMUL
  1.000000         1        2.
        0.     10000        2.       3.5                      !DT0,MXSTRN,TTSMUL
  1.000000         1        2.
        0.     10000        2.       3.5                      !DT0,MXSTRN,TTSMUL
  1.000000         1        2.
        0.     10000        2.       3.5                      !DT0,MXSTRN,TTSMUL
  1.000000         1        2.
        0.     10000        2.       3.5                      !DT0,MXSTRN,TTSMUL
  1.000000         1        2.
        0.     10000        2.       3.5                      !DT0,MXSTRN,TTSMUL
  1.000000         1        2.
        0.     10000        2.       3.5                      !DT0,MXSTRN,TTSMUL
